Metadata-Version: 2.1
Name: geoschem-gcpy
Version: 1.0.2
Summary: UNKNOWN
Home-page: https://github.com/geoschem/gcpy
Author: GEOS-Chem Support Team
Author-email: geos-chem-support@g.harvard.edu
Maintainer: GEOS-Chem Support Team
Maintainer-email: geos-chem-support@g.harvard.edu
License: MIT
Platform: UNKNOWN
Classifier: Development Status :: 5 - Production/Stable
Classifier: License :: OSI Approved :: MIT License
Classifier: Operating System :: OS Independent
Classifier: Intended Audience :: Science/Research
Classifier: Programming Language :: Python
Classifier: Programming Language :: Python :: 3.6
Classifier: Programming Language :: Python :: 3.7
Classifier: Programming Language :: Python :: 3.8
Classifier: Topic :: Scientific/Engineering
Requires-Dist: xesmf (>=0.2.1)
Requires-Dist: scipy (>=1.3.1)
Requires-Dist: Cartopy (>=0.17.0)
Requires-Dist: pandas (>=0.25.1)
Requires-Dist: matplotlib (>=3.1.1)
Requires-Dist: tabulate (>=0.8.3)
Requires-Dist: joblib (>=0.17.0)
Requires-Dist: xbpch (>=0.3.5)
Requires-Dist: numpy (>=1.19.1)
Requires-Dist: PyPDF2 (>=1.26.0)
Requires-Dist: sphinx
Requires-Dist: sphinx-rtd-theme
Requires-Dist: sphinx-autoapi

Python toolkit for working with GEOS-Chem output.


