Metadata-Version: 1.2
Name: geoschem-gcpy
Version: 1.0.2
Summary: UNKNOWN
Home-page: https://github.com/geoschem/gcpy
Author: GEOS-Chem Support Team
Author-email: geos-chem-support@g.harvard.edu
Maintainer: GEOS-Chem Support Team
Maintainer-email: geos-chem-support@g.harvard.edu
License: MIT
Description: Python toolkit for working with GEOS-Chem output.
        
Platform: UNKNOWN
Classifier: Development Status :: 5 - Production/Stable
Classifier: License :: OSI Approved :: MIT License
Classifier: Operating System :: OS Independent
Classifier: Intended Audience :: Science/Research
Classifier: Programming Language :: Python
Classifier: Programming Language :: Python :: 3.6
Classifier: Programming Language :: Python :: 3.7
Classifier: Programming Language :: Python :: 3.8
Classifier: Topic :: Scientific/Engineering
